
  EPA STORM WATER MANAGEMENT MODEL - VERSION 5.2 (Build 5.2.1)
  ------------------------------------------------------------

  Example 1 
  
  ****************
  Analysis Options
  ****************
  Flow Units ............... CFS
  Process Models:
    Rainfall/Runoff ........ YES
    RDII ................... NO
    Snowmelt ............... NO
    Groundwater ............ NO
    Flow Routing ........... YES
    Ponding Allowed ........ NO
    Water Quality .......... YES
  Infiltration Method ...... HORTON
  Flow Routing Method ...... KINWAVE
  Starting Date ............ 01/01/1998 00:00:00
  Ending Date .............. 01/02/1998 12:00:00
  Antecedent Dry Days ...... 5.0
  Report Time Step ......... 01:00:00
  Wet Time Step ............ 00:15:00
  Dry Time Step ............ 01:00:00
  Routing Time Step ........ 60.00 sec
  
  
  *********************
  Rainfall File Summary
  *********************
  Station    First        Last         Recording   Periods    Periods    Periods
  ID         Date         Date         Frequency  w/Precip    Missing    Malfunc.
  -------------------------------------------------------------------------------
  RG_X       01/01/1998   01/02/1998      60 min        11          0          0

  
  
  **************************        Volume         Depth
  Runoff Quantity Continuity     acre-feet        inches
  **************************     ---------       -------
  Total Precipitation ......        22.779         3.850
  Evaporation Loss .........         0.000         0.000
  Infiltration Loss ........        11.505         1.945
  Surface Runoff ...........        11.262         1.903
  Final Storage ............         0.081         0.014
  Continuity Error (%) .....        -0.299
  
  
  **************************           TSS          Lead
  Runoff Quality Continuity            lbs           lbs
  **************************    ----------    ----------
  Initial Buildup ..........      3433.036         0.000
  Surface Buildup ..........       373.317         0.140
  Wet Deposition ...........         0.000         0.000
  Sweeping Removal .........         0.000         0.000
  Infiltration Loss ........         0.000         0.000
  BMP Removal ..............         0.000         0.000
  Surface Runoff ...........       701.468         0.140
  Remaining Buildup ........      3104.885         0.000
  Continuity Error (%) .....         0.000         0.000
  
  
  **************************        Volume        Volume
  Flow Routing Continuity        acre-feet      10^6 gal
  **************************     ---------     ---------
  Dry Weather Inflow .......         0.000         0.000
  Wet Weather Inflow .......        11.262         3.670
  Groundwater Inflow .......         0.000         0.000
  RDII Inflow ..............         0.000         0.000
  External Inflow ..........         0.000         0.000
  External Outflow .........         8.803         2.869
  Flooding Loss ............         2.445         0.797
  Evaporation Loss .........         0.000         0.000
  Exfiltration Loss ........         0.000         0.000
  Initial Stored Volume ....         0.000         0.000
  Final Stored Volume ......         0.000         0.000
  Continuity Error (%) .....         0.114
  
  
  **************************           TSS          Lead
  Quality Routing Continuity           lbs           lbs
  **************************    ----------    ----------
  Dry Weather Inflow .......         0.000         0.000
  Wet Weather Inflow .......       701.468         0.140
  Groundwater Inflow .......         0.000         0.000
  RDII Inflow ..............         0.000         0.000
  External Inflow ..........         0.000         0.000
  External Outflow .........       593.647         0.119
  Flooding Loss ............       108.439         0.022
  Exfiltration Loss ........         0.000         0.000
  Mass Reacted .............         0.000         0.000
  Initial Stored Mass ......         0.000         0.000
  Final Stored Mass ........         0.003         0.000
  Continuity Error (%) .....        -0.089        -0.089
  
  
  ********************************
  Highest Flow Instability Indexes
  ********************************
  All links are stable.
  
  
  *************************
  Routing Time Step Summary
  *************************
  Minimum Time Step           :    60.00 sec
  Average Time Step           :    60.00 sec
  Maximum Time Step           :    60.00 sec
  % of Time in Steady State   :     0.00
  Average Iterations per Step :     1.72
  % of Steps Not Converging   :     0.00
  
  
  ***************************
  Subcatchment Runoff Summary
  ***************************
  
  ------------------------------------------------------------------------------------------------------------------------------
                            Total      Total      Total      Total     Imperv       Perv      Total       Total     Peak  Runoff
                           Precip      Runon       Evap      Infil     Runoff     Runoff     Runoff      Runoff   Runoff   Coeff
  Subcatchment                 in         in         in         in         in         in         in    10^6 gal      CFS
  ------------------------------------------------------------------------------------------------------------------------------
  1                          3.85       0.00       0.00       1.37       1.92       0.56       2.48        0.67    10.91   0.644
  2                          3.85       0.00       0.00       1.46       1.92       0.46       2.38        0.65    10.64   0.619
  3                          3.85       0.00       0.00       1.33       1.92       0.60       2.52        0.34     6.01   0.655
  4                          3.85       0.00       0.00       1.33       1.92       0.60       2.52        0.34     6.01   0.655
  5                          3.85       0.00       0.00       1.54       1.92       0.38       2.30        0.94    14.95   0.598
  6                          3.85       0.00       0.00       2.90       0.38       0.56       0.95        0.31     4.98   0.246
  7                          3.85       0.00       0.00       2.51       0.38       0.95       1.34        0.15     2.95   0.347
  8                          3.85       0.00       0.00       2.84       0.38       0.62       1.01        0.27     4.56   0.262
  
  
  ****************************
  Subcatchment Washoff Summary
  ****************************
  
  ------------------------------------------------
                                 TSS          Lead
  Subcatchment                   lbs           lbs
  ------------------------------------------------
  1                           79.974         0.016
  2                          128.427         0.026
  3                           40.619         0.008
  4                           65.654         0.013
  5                          112.215         0.022
  6                          122.224         0.024
  7                           47.338         0.009
  8                          105.017         0.021
  ------------------------------------------------
  System                     701.468         0.140
  
  
  ******************
  Node Depth Summary
  ******************
  
  ---------------------------------------------------------------------------------
                                 Average  Maximum  Maximum  Time of Max    Reported
                                   Depth    Depth      HGL   Occurrence   Max Depth
  Node                 Type         Feet     Feet     Feet  days hr:min        Feet
  ---------------------------------------------------------------------------------
  9                    JUNCTION     0.11     0.94  1000.94     0  05:01        0.94
  10                   JUNCTION     0.38     3.00   998.00     0  02:17        3.00
  13                   JUNCTION     0.07     0.65   995.65     0  05:01        0.65
  14                   JUNCTION     0.08     0.75   990.75     0  05:01        0.75
  15                   JUNCTION     0.25     3.00   990.00     0  04:03        3.00
  16                   JUNCTION     0.22     1.50   986.50     0  04:06        1.50
  17                   JUNCTION     0.22     1.57   981.57     0  05:02        1.56
  19                   JUNCTION     0.04     0.44  1010.44     0  05:01        0.44
  20                   JUNCTION     0.04     0.44  1005.44     0  05:01        0.44
  21                   JUNCTION     1.19     2.00   992.00     0  02:55        2.00
  22                   JUNCTION     1.13     1.69   988.69     0  05:02        1.69
  23                   JUNCTION     0.08     0.73   990.73     0  05:01        0.72
  24                   JUNCTION     0.22     1.57   985.57     0  05:01        1.56
  18                   OUTFALL      0.21     1.42   976.42     0  05:02        1.41
  
  
  *******************
  Node Inflow Summary
  *******************
  
  -------------------------------------------------------------------------------------------------
                                  Maximum  Maximum                  Lateral       Total        Flow
                                  Lateral    Total  Time of Max      Inflow      Inflow     Balance
                                   Inflow   Inflow   Occurrence      Volume      Volume       Error
  Node                 Type           CFS      CFS  days hr:min    10^6 gal    10^6 gal     Percent
  -------------------------------------------------------------------------------------------------
  9                    JUNCTION     10.91    10.91     0  05:01       0.673       0.673       0.000
  10                   JUNCTION     10.64    21.53     0  05:01       0.647        1.32      -0.000
  13                   JUNCTION      6.01     6.01     0  05:01       0.342       0.342       0.000
  14                   JUNCTION      0.00     5.98     0  05:01           0       0.342       0.000
  15                   JUNCTION     14.95    20.92     0  05:01       0.938        1.28       0.000
  16                   JUNCTION      0.00    23.18     0  05:01           0        2.29       0.000
  17                   JUNCTION      0.00    28.09     0  05:02           0         2.6       0.000
  19                   JUNCTION      2.95     2.95     0  05:01       0.145       0.145       0.000
  20                   JUNCTION      0.00     2.94     0  05:01           0       0.145       0.000
  21                   JUNCTION      0.00     7.57     0  05:01           0       0.922       0.000
  22                   JUNCTION      6.01    13.56     0  05:01       0.342        1.26       0.000
  23                   JUNCTION      4.98     4.98     0  05:01       0.308       0.308       0.000
  24                   JUNCTION      0.00    28.11     0  05:01           0         2.6       0.000
  18                   OUTFALL       4.56    32.53     0  05:01       0.274        2.87       0.000
  
  
  *********************
  Node Flooding Summary
  *********************
  
  Flooding refers to all water that overflows a node, whether it ponds or not.
  --------------------------------------------------------------------------
                                                             Total   Maximum
                                 Maximum   Time of Max       Flood    Ponded
                        Hours       Rate    Occurrence      Volume    Volume
  Node                 Flooded       CFS   days hr:min    10^6 gal  1000 ft³
  --------------------------------------------------------------------------
  10                      3.42     16.90      0  05:01       0.547     0.000
  15                      1.18     11.26      0  05:01       0.250     0.000
  
  
  ***********************
  Outfall Loading Summary
  ***********************
  
  ---------------------------------------------------------------------------------------
                         Flow       Avg       Max       Total         Total         Total
                         Freq      Flow      Flow      Volume           TSS          Lead
  Outfall Node           Pcnt       CFS       CFS    10^6 gal           lbs           lbs
  ---------------------------------------------------------------------------------------
  18                    72.87      4.06     32.53       2.868       593.647         0.119
  ---------------------------------------------------------------------------------------
  System                72.87      4.06     32.53       2.868       593.647         0.119
  
  
  ********************
  Link Flow Summary
  ********************
  
  -----------------------------------------------------------------------------
                                 Maximum  Time of Max   Maximum    Max/    Max/
                                  |Flow|   Occurrence   |Veloc|    Full    Full
  Link                 Type          CFS  days hr:min    ft/sec    Flow   Depth
  -----------------------------------------------------------------------------
  1                    CONDUIT     10.89     0  05:01      9.45    0.71    0.62
  4                    CONDUIT      2.94     0  05:01      8.82    0.40    0.44
  5                    CONDUIT      2.94     0  05:01     13.15    0.23    0.33
  6                    CONDUIT      4.93     0  02:53      6.88    1.06    1.00
  7                    CONDUIT      7.56     0  05:02      7.85    0.26    0.35
  8                    CONDUIT     13.52     0  05:01      7.89    0.56    0.54
  10                   CONDUIT     28.06     0  05:02     11.77    0.85    0.71
  11                   CONDUIT      5.98     0  05:01      8.17    0.39    0.44
  12                   CONDUIT      5.97     0  05:01      6.76    0.50    0.50
  13                   CONDUIT      9.91     0  04:04      6.68    1.03    1.00
  14                   CONDUIT      4.94     0  05:01      8.20    0.87    0.72
  15                   CONDUIT     23.17     0  05:01     10.37    0.79    0.67
  16                   CONDUIT     28.09     0  05:02     10.69    0.96    0.78
  
  
  *************************
  Conduit Surcharge Summary
  *************************
  
  ----------------------------------------------------------------------------
                                                           Hours        Hours 
                         --------- Hours Full --------   Above Full   Capacity
  Conduit                Both Ends  Upstream  Dnstream   Normal Flow   Limited
  ----------------------------------------------------------------------------
  6                           3.42      3.42      3.42      3.40         3.42
  13                          1.18      1.18      1.18      1.20         1.18
  
  
  ***************************
  Link Pollutant Load Summary
  ***************************
  
  ------------------------------------------------
                                 TSS          Lead
  Link                           lbs           lbs
  ------------------------------------------------
  1                           79.978         0.016
  4                           47.312         0.009
  5                           47.316         0.009
  6                          130.181         0.026
  7                          177.461         0.035
  8                          243.146         0.049
  10                         488.631         0.098
  11                          40.609         0.008
  12                          40.603         0.008
  13                         123.417         0.025
  14                         122.101         0.024
  15                         366.765         0.073
  16                         488.695         0.098
  

  Analysis begun on:  Wed Feb 15 17:40:30 2023
  Analysis ended on:  Wed Feb 15 17:40:30 2023
  Total elapsed time: < 1 sec