
  EPA STORM WATER MANAGEMENT MODEL - VERSION 5.2 (Build 5.2.1)
  ------------------------------------------------------------

  Example 1 
  
  ****************
  Analysis Options
  ****************
  Flow Units ............... CFS
  Process Models:
    Rainfall/Runoff ........ YES
    RDII ................... NO
    Snowmelt ............... NO
    Groundwater ............ NO
    Flow Routing ........... YES
    Ponding Allowed ........ NO
    Water Quality .......... YES
  Infiltration Method ...... HORTON
  Flow Routing Method ...... KINWAVE
  Starting Date ............ 01/01/1998 00:00:00
  Ending Date .............. 01/02/1998 12:00:00
  Antecedent Dry Days ...... 5.0
  Report Time Step ......... 01:00:00
  Wet Time Step ............ 00:15:00
  Dry Time Step ............ 01:00:00
  Routing Time Step ........ 60.00 sec
  
  
  **************************        Volume         Depth
  Runoff Quantity Continuity     acre-feet        inches
  **************************     ---------       -------
  Total Precipitation ......       415.388         2.650
  Evaporation Loss .........         0.000         0.000
  Infiltration Loss ........       396.940         2.532
  Surface Runoff ...........        18.608         0.119
  Final Storage ............         0.178         0.001
  Continuity Error (%) .....        -0.082
  
  
  **************************           TSS          Lead
  Runoff Quality Continuity            lbs           lbs
  **************************    ----------    ----------
  Initial Buildup ..........      3075.893         0.000
  Surface Buildup ..........       283.853         0.076
  Wet Deposition ...........         0.000         0.000
  Sweeping Removal .........         0.000         0.000
  Infiltration Loss ........         0.000         0.000
  BMP Removal ..............         0.000         0.000
  Surface Runoff ...........       381.293         0.076
  Remaining Buildup ........      2978.453         0.000
  Continuity Error (%) .....         0.000         0.000
  
  
  **************************        Volume        Volume
  Flow Routing Continuity        acre-feet      10^6 gal
  **************************     ---------     ---------
  Dry Weather Inflow .......         0.000         0.000
  Wet Weather Inflow .......        18.608         6.064
  Groundwater Inflow .......         0.000         0.000
  RDII Inflow ..............         0.000         0.000
  External Inflow ..........         0.000         0.000
  External Outflow .........         6.641         2.164
  Flooding Loss ............        11.961         3.898
  Evaporation Loss .........         0.000         0.000
  Exfiltration Loss ........         0.000         0.000
  Initial Stored Volume ....         0.000         0.000
  Final Stored Volume ......         0.000         0.000
  Continuity Error (%) .....         0.028
  
  
  **************************           TSS          Lead
  Quality Routing Continuity           lbs           lbs
  **************************    ----------    ----------
  Dry Weather Inflow .......         0.000         0.000
  Wet Weather Inflow .......       381.293         0.076
  Groundwater Inflow .......         0.000         0.000
  RDII Inflow ..............         0.000         0.000
  External Inflow ..........         0.000         0.000
  External Outflow .........       323.923         0.065
  Flooding Loss ............        55.983         0.011
  Exfiltration Loss ........         0.000         0.000
  Mass Reacted .............         0.000         0.000
  Initial Stored Mass ......         0.000         0.000
  Final Stored Mass ........         0.003         0.000
  Continuity Error (%) .....         0.363         0.363
  
  
  ********************************
  Highest Flow Instability Indexes
  ********************************
  All links are stable.
  
  
  *************************
  Routing Time Step Summary
  *************************
  Minimum Time Step           :    60.00 sec
  Average Time Step           :    60.00 sec
  Maximum Time Step           :    60.00 sec
  % of Time in Steady State   :     0.00
  Average Iterations per Step :     1.36
  % of Steps Not Converging   :     0.00
  
  
  ***************************
  Subcatchment Runoff Summary
  ***************************
  
  ------------------------------------------------------------------------------------------------------------------------------
                            Total      Total      Total      Total     Imperv       Perv      Total       Total     Peak  Runoff
                           Precip      Runon       Evap      Infil     Runoff     Runoff     Runoff      Runoff   Runoff   Coeff
  Subcatchment                 in         in         in         in         in         in         in    10^6 gal      CFS
  ------------------------------------------------------------------------------------------------------------------------------
  370995439                  2.65       0.00       0.00       2.56       0.05       0.04       0.09        0.01     0.39   0.034
  370997097                  2.65       0.00       0.00       2.56       0.05       0.04       0.09        0.01     0.39   0.034
  370995435                  2.65       0.00       0.00       2.56       0.05       0.04       0.09        0.01     0.39   0.034
  370995447                  2.65       0.00       0.00       2.56       0.05       0.04       0.09        0.01     0.39   0.034
  685933309                  2.65       0.00       0.00       2.56       0.05       0.04       0.09        0.01     0.39   0.034
  374494683                  2.65       0.00       0.00       2.56       0.05       0.04       0.09        0.01     0.39   0.034
  685879161                  2.65       0.00       0.00       2.56       0.05       0.04       0.09        0.01     0.39   0.034
  685933307                  2.65       0.00       0.00       2.56       0.05       0.04       0.09        0.01     0.39   0.034
  375011373                  2.65       0.00       0.00       2.56       0.05       0.04       0.09        0.01     0.39   0.034
  685913793                  2.65       0.00       0.00       2.56       0.05       0.04       0.09        0.01     0.39   0.034
  685883514                  2.65       0.00       0.00       2.56       0.05       0.04       0.09        0.01     0.39   0.034
  685877782                  2.65       0.00       0.00       2.56       0.05       0.04       0.09        0.01     0.39   0.034
  685874598                  2.65       0.00       0.00       2.56       0.05       0.04       0.09        0.01     0.39   0.034
  685875663                  2.65       0.00       0.00       2.56       0.05       0.04       0.09        0.01     0.39   0.034
  374494685                  2.65       0.00       0.00       2.56       0.05       0.04       0.09        0.01     0.39   0.034
  685909942                  2.65       0.00       0.00       2.56       0.05       0.04       0.09        0.01     0.39   0.034
  685913796                  2.65       0.00       0.00       2.56       0.05       0.04       0.09        0.01     0.39   0.034
  685877638                  2.65       0.00       0.00       2.56       0.05       0.04       0.09        0.01     0.39   0.034
  685472658                  2.65       0.00       0.00       2.56       0.05       0.04       0.09        0.01     0.39   0.034
  685882661                  2.65       0.00       0.00       2.56       0.05       0.04       0.09        0.01     0.39   0.034
  370997098                  2.65       0.00       0.00       2.56       0.05       0.04       0.09        0.01     0.39   0.034
  1752667827121555           2.65       0.00       0.00       2.56       0.05       0.04       0.09        0.01     0.39   0.034
  685874048                  2.65       0.00       0.00       2.56       0.05       0.04       0.09        0.01     0.39   0.034
  685885820                  2.65       0.00       0.00       2.56       0.05       0.04       0.09        0.01     0.39   0.034
  374494686                  2.65       0.00       0.00       2.56       0.05       0.04       0.09        0.01     0.39   0.034
  685878130                  2.65       0.00       0.00       2.56       0.05       0.04       0.09        0.01     0.39   0.034
  685885819                  2.65       0.00       0.00       2.56       0.05       0.04       0.09        0.01     0.39   0.034
  685926441                  2.65       0.00       0.00       2.56       0.05       0.04       0.09        0.01     0.39   0.034
  685877956                  2.65       0.00       0.00       2.56       0.05       0.04       0.09        0.01     0.39   0.034
  1213973655851495           2.65       0.00       0.00       2.56       0.05       0.04       0.09        0.01     0.39   0.034
  685882835                  2.65       0.00       0.00       2.56       0.05       0.04       0.09        0.01     0.39   0.034
  685874796                  2.65       0.00       0.00       2.56       0.05       0.04       0.09        0.01     0.39   0.034
  134955126411405            2.65       0.00       0.00       2.56       0.05       0.04       0.09        0.01     0.39   0.034
  4091570214933675           2.65       0.00       0.00       2.56       0.05       0.04       0.09        0.01     0.39   0.034
  3167579606707235           2.65       0.00       0.00       2.56       0.05       0.04       0.09        0.01     0.39   0.034
  398538993186535            2.65       0.00       0.00       2.56       0.05       0.04       0.09        0.01     0.39   0.034
  5157460039455535           2.65       0.00       0.00       2.56       0.05       0.04       0.09        0.01     0.39   0.034
  374629176                  2.65       0.00       0.00       2.56       0.05       0.04       0.09        0.01     0.39   0.034
  4398983480386405           2.65       0.00       0.00       2.56       0.05       0.04       0.09        0.01     0.39   0.034
  4053187851093285           2.65       0.00       0.00       2.56       0.05       0.04       0.09        0.01     0.39   0.034
  1448521660236735           2.65       0.00       0.00       2.56       0.05       0.04       0.09        0.01     0.39   0.034
  1220338464205595           2.65       0.00       0.00       2.56       0.05       0.04       0.09        0.01     0.39   0.034
  370276442                  2.65       0.00       0.00       2.56       0.05       0.04       0.09        0.01     0.39   0.034
  3881420723527275           2.65       0.00       0.00       2.56       0.05       0.04       0.09        0.01     0.39   0.034
  374629175                  2.65       0.00       0.00       2.56       0.05       0.04       0.09        0.01     0.39   0.034
  375109508                  2.65       0.00       0.00       2.56       0.05       0.04       0.09        0.01     0.39   0.034
  4605277256059175           2.65       0.00       0.00       2.56       0.05       0.04       0.09        0.01     0.39   0.034
  370934347905915            2.65       0.00       0.00       2.56       0.05       0.04       0.09        0.01     0.39   0.034
  4394804005829765           2.65       0.00       0.00       2.56       0.05       0.04       0.09        0.01     0.39   0.034
  685969424                  2.65       0.00       0.00       2.56       0.05       0.04       0.09        0.01     0.39   0.034
  5531202424173705           2.65       0.00       0.00       2.56       0.05       0.04       0.09        0.01     0.39   0.034
  2437958647308555           2.65       0.00       0.00       2.56       0.05       0.04       0.09        0.01     0.39   0.034
  1351552798623385           2.65       0.00       0.00       2.56       0.05       0.04       0.09        0.01     0.39   0.034
  4235476910067515           2.65       0.00       0.00       2.56       0.05       0.04       0.09        0.01     0.39   0.034
  839088263721825            2.65       0.00       0.00       2.56       0.05       0.04       0.09        0.01     0.39   0.034
  4535425796051525           2.65       0.00       0.00       2.56       0.05       0.04       0.09        0.01     0.39   0.034
  2483776702980555           2.65       0.00       0.00       2.56       0.05       0.04       0.09        0.01     0.39   0.034
  1886641471372695           2.65       0.00       0.00       2.56       0.05       0.04       0.09        0.01     0.39   0.034
  1544216086485295           2.65       0.00       0.00       2.56       0.05       0.04       0.09        0.01     0.39   0.034
  370585511                  2.65       0.00       0.00       2.56       0.05       0.04       0.09        0.01     0.39   0.034
  4265632450309875           2.65       0.00       0.00       2.56       0.05       0.04       0.09        0.01     0.39   0.034
  4917957991456495           2.65       0.00       0.00       2.56       0.05       0.04       0.09        0.01     0.39   0.034
  374628274                  2.65       0.00       0.00       2.56       0.05       0.04       0.09        0.01     0.39   0.034
  374628275                  2.65       0.00       0.00       2.56       0.05       0.04       0.09        0.01     0.39   0.034
  1145568240444705           2.65       0.00       0.00       2.56       0.05       0.04       0.09        0.01     0.39   0.034
  174261341122835            2.65       0.00       0.00       2.56       0.05       0.04       0.09        0.01     0.39   0.034
  4088208754605765           2.65       0.00       0.00       2.56       0.05       0.04       0.09        0.01     0.39   0.034
  375109506                  2.65       0.00       0.00       2.56       0.05       0.04       0.09        0.01     0.39   0.034
  3451180154337545           2.65       0.00       0.00       2.56       0.05       0.04       0.09        0.01     0.39   0.034
  2714497763837645           2.65       0.00       0.00       2.56       0.05       0.04       0.09        0.01     0.39   0.034
  2542274248462105           2.65       0.00       0.00       2.56       0.05       0.04       0.09        0.01     0.39   0.034
  369935480                  2.65       0.00       0.00       2.56       0.05       0.04       0.09        0.01     0.39   0.034
  370276424                  2.65       0.00       0.00       2.56       0.05       0.04       0.09        0.01     0.39   0.034
  374628276                  2.65       0.00       0.00       2.56       0.05       0.04       0.09        0.01     0.39   0.034
  2297284081073355           2.65       0.00       0.00       2.56       0.05       0.04       0.09        0.01     0.39   0.034
  2914084063253065           2.65       0.00       0.00       2.56       0.05       0.04       0.09        0.01     0.39   0.034
  369935496                  2.65       0.00       0.00       2.56       0.05       0.04       0.09        0.01     0.39   0.034
  713405900011335            2.65       0.00       0.00       2.56       0.05       0.04       0.09        0.01     0.39   0.034
  2516190266764155           2.65       0.00       0.00       2.56       0.05       0.04       0.09        0.01     0.39   0.034
  5602778212592045           2.65       0.00       0.00       2.56       0.05       0.04       0.09        0.01     0.39   0.034
  750363496675355            2.65       0.00       0.00       2.56       0.05       0.04       0.09        0.01     0.39   0.034
  2979121345560105           2.65       0.00       0.00       2.56       0.05       0.04       0.09        0.01     0.39   0.034
  2995047727490925           2.65       0.00       0.00       2.56       0.05       0.04       0.09        0.01     0.39   0.034
  2243817674945495           2.65       0.00       0.00       2.56       0.05       0.04       0.09        0.01     0.39   0.034
  2604609012658865           2.65       0.00       0.00       2.56       0.05       0.04       0.09        0.01     0.39   0.034
  1617676937829845           2.65       0.00       0.00       2.56       0.05       0.04       0.09        0.01     0.39   0.034
  5478545555890815           2.65       0.00       0.00       2.56       0.05       0.04       0.09        0.01     0.39   0.034
  5220362509116755           2.65       0.00       0.00       2.56       0.05       0.04       0.09        0.01     0.39   0.034
  1859206529744015           2.65       0.00       0.00       2.56       0.05       0.04       0.09        0.01     0.39   0.034
  375109507                  2.65       0.00       0.00       2.56       0.05       0.04       0.09        0.01     0.39   0.034
  2151138269522915           2.65       0.00       0.00       2.56       0.05       0.04       0.09        0.01     0.39   0.034
  4650661269543295           2.65       0.00       0.00       2.56       0.05       0.04       0.09        0.01     0.39   0.034
  388181828                  2.65       0.00       0.00       2.56       0.05       0.04       0.09        0.01     0.39   0.034
  4186704481955285           2.65       0.00       0.00       2.56       0.05       0.04       0.09        0.01     0.39   0.034
  3798022896651235           2.65       0.00       0.00       2.56       0.05       0.04       0.09        0.01     0.39   0.034
  1804756951380835           2.65       0.00       0.00       2.56       0.05       0.04       0.09        0.01     0.39   0.034
  1098608080110745           2.65       0.00       0.00       2.56       0.05       0.04       0.09        0.01     0.39   0.034
  3830783165009325           2.65       0.00       0.00       2.56       0.05       0.04       0.09        0.01     0.39   0.034
  5142534242675515           2.65       0.00       0.00       2.56       0.05       0.04       0.09        0.01     0.39   0.034
  1062021281050945           2.65       0.00       0.00       2.56       0.05       0.04       0.09        0.01     0.39   0.034
  369935488                  2.65       0.00       0.00       2.56       0.05       0.04       0.09        0.01     0.39   0.034
  388181158                  2.65       0.00       0.00       2.56       0.05       0.04       0.09        0.01     0.39   0.034
  369935483                  2.65       0.00       0.00       2.56       0.05       0.04       0.09        0.01     0.39   0.034
  1692392045315935           2.65       0.00       0.00       2.56       0.05       0.04       0.09        0.01     0.39   0.034
  5568726541859455           2.65       0.00       0.00       2.56       0.05       0.04       0.09        0.01     0.39   0.034
  685969507                  2.65       0.00       0.00       2.56       0.05       0.04       0.09        0.01     0.39   0.034
  3271774309926695           2.65       0.00       0.00       2.56       0.05       0.04       0.09        0.01     0.39   0.034
  369935493                  2.65       0.00       0.00       2.56       0.05       0.04       0.09        0.01     0.39   0.034
  369935487                  2.65       0.00       0.00       2.56       0.05       0.04       0.09        0.01     0.39   0.034
  369935494                  2.65       0.00       0.00       2.56       0.05       0.04       0.09        0.01     0.39   0.034
  2980645255497015           2.65       0.00       0.00       2.56       0.05       0.04       0.09        0.01     0.39   0.034
  15190031824745             2.65       0.00       0.00       2.56       0.05       0.04       0.09        0.01     0.39   0.034
  2797712357301035           2.65       0.00       0.00       2.56       0.05       0.04       0.09        0.01     0.39   0.034
  685969423                  2.65       0.00       0.00       2.56       0.05       0.04       0.09        0.01     0.39   0.034
  2893936086714105           2.65       0.00       0.00       2.56       0.05       0.04       0.09        0.01     0.39   0.034
  4966813987486135           2.65       0.00       0.00       2.56       0.05       0.04       0.09        0.01     0.39   0.034
  1111007246540285           2.65       0.00       0.00       2.56       0.05       0.04       0.09        0.01     0.39   0.034
  3086794160747535           2.65       0.00       0.00       2.56       0.05       0.04       0.09        0.01     0.39   0.034
  374618352                  2.65       0.00       0.00       2.56       0.05       0.04       0.09        0.01     0.39   0.034
  4366750502879205           2.65       0.00       0.00       2.56       0.05       0.04       0.09        0.01     0.39   0.034
  3192359514743505           2.65       0.00       0.00       2.56       0.05       0.04       0.09        0.01     0.39   0.034
  2856417823674605           2.65       0.00       0.00       2.56       0.05       0.04       0.09        0.01     0.39   0.034
  5392525598865245           2.65       0.00       0.00       2.56       0.05       0.04       0.09        0.01     0.39   0.034
  2642134275452815           2.65       0.00       0.00       2.56       0.05       0.04       0.09        0.01     0.39   0.034
  4378984076889145           2.65       0.00       0.00       2.56       0.05       0.04       0.09        0.01     0.39   0.034
  5151492757614795           2.65       0.00       0.00       2.56       0.05       0.04       0.09        0.01     0.39   0.034
  369935481                  2.65       0.00       0.00       2.56       0.05       0.04       0.09        0.01     0.39   0.034
  4847216338966515           2.65       0.00       0.00       2.56       0.05       0.04       0.09        0.01     0.39   0.034
  2447307614953445           2.65       0.00       0.00       2.56       0.05       0.04       0.09        0.01     0.39   0.034
  2032739246028575           2.65       0.00       0.00       2.56       0.05       0.04       0.09        0.01     0.39   0.034
  2848925417463575           2.65       0.00       0.00       2.56       0.05       0.04       0.09        0.01     0.39   0.034
  369935492                  2.65       0.00       0.00       2.56       0.05       0.04       0.09        0.01     0.39   0.034
  1111139731076335           2.65       0.00       0.00       2.56       0.05       0.04       0.09        0.01     0.39   0.034
  5475326729023655           2.65       0.00       0.00       2.56       0.05       0.04       0.09        0.01     0.39   0.034
  4417402027643485           2.65       0.00       0.00       2.56       0.05       0.04       0.09        0.01     0.39   0.034
  3631890676860415           2.65       0.00       0.00       2.56       0.05       0.04       0.09        0.01     0.39   0.034
  1259843287409135           2.65       0.00       0.00       2.56       0.05       0.04       0.09        0.01     0.39   0.034
  4531187286450895           2.65       0.00       0.00       2.56       0.05       0.04       0.09        0.01     0.39   0.034
  2503183035170825           2.65       0.00       0.00       2.56       0.05       0.04       0.09        0.01     0.39   0.034
  685969422                  2.65       0.00       0.00       2.56       0.05       0.04       0.09        0.01     0.39   0.034
  2178692651798225           2.65       0.00       0.00       2.56       0.05       0.04       0.09        0.01     0.39   0.034
  5228144807642285           2.65       0.00       0.00       2.56       0.05       0.04       0.09        0.01     0.39   0.034
  3341501580820655           2.65       0.00       0.00       2.56       0.05       0.04       0.09        0.01     0.39   0.034
  369935491                  2.65       0.00       0.00       2.56       0.05       0.04       0.09        0.01     0.39   0.034
  4055665503038855           2.65       0.00       0.00       2.56       0.05       0.04       0.09        0.01     0.39   0.034
  4173819424562755           2.65       0.00       0.00       2.56       0.05       0.04       0.09        0.01     0.39   0.034
  3073843947496475           2.65       0.00       0.00       2.56       0.05       0.04       0.09        0.01     0.39   0.034
  3343019278756995           2.65       0.00       0.00       2.56       0.05       0.04       0.09        0.01     0.39   0.034
  5147588464920875           2.65       0.00       0.00       2.56       0.05       0.04       0.09        0.01     0.39   0.034
  5067782000423435           2.65       0.00       0.00       2.56       0.05       0.04       0.09        0.01     0.39   0.034
  2763899899408935           2.65       0.00       0.00       2.56       0.05       0.04       0.09        0.01     0.39   0.034
  5586016532679685           2.65       0.00       0.00       2.56       0.05       0.04       0.09        0.01     0.39   0.034
  685969421                  2.65       0.00       0.00       2.56       0.05       0.04       0.09        0.01     0.39   0.034
  4826380750437625           2.65       0.00       0.00       2.56       0.05       0.04       0.09        0.01     0.39   0.034
  3990030549790375           2.65       0.00       0.00       2.56       0.05       0.04       0.09        0.01     0.39   0.034
  2352187347101435           2.65       0.00       0.00       2.56       0.05       0.04       0.09        0.01     0.39   0.034
  1484197558799525           2.65       0.00       0.00       2.56       0.05       0.04       0.09        0.01     0.39   0.034
  4762499884831015           2.65       0.00       0.00       2.56       0.05       0.04       0.09        0.01     0.39   0.034
  30491990645265             2.65       0.00       0.00       2.56       0.05       0.04       0.09        0.01     0.39   0.034
  2955795723863475           2.65       0.00       0.00       2.56       0.05       0.04       0.09        0.01     0.39   0.034
  3267633902079745           2.65       0.00       0.00       2.56       0.05       0.04       0.09        0.01     0.39   0.034
  2463989059191605           2.65       0.00       0.00       2.56       0.05       0.04       0.09        0.01     0.39   0.034
  685969506                  2.65       0.00       0.00       2.56       0.05       0.04       0.09        0.01     0.39   0.034
  5211189152060715           2.65       0.00       0.00       2.56       0.05       0.04       0.09        0.01     0.39   0.034
  2336540103029365           2.65       0.00       0.00       2.56       0.05       0.04       0.09        0.01     0.39   0.034
  5146673707210455           2.65       0.00       0.00       2.56       0.05       0.04       0.09        0.01     0.39   0.034
  4168203065867455           2.65       0.00       0.00       2.56       0.05       0.04       0.09        0.01     0.39   0.034
  4608323223395945           2.65       0.00       0.00       2.56       0.05       0.04       0.09        0.01     0.39   0.034
  4896687439420135           2.65       0.00       0.00       2.56       0.05       0.04       0.09        0.01     0.39   0.034
  2034305886544725           2.65       0.00       0.00       2.56       0.05       0.04       0.09        0.01     0.39   0.034
  1576398127082235           2.65       0.00       0.00       2.56       0.05       0.04       0.09        0.01     0.39   0.034
  4426753552692035           2.65       0.00       0.00       2.56       0.05       0.04       0.09        0.01     0.39   0.034
  5194447969232425           2.65       0.00       0.00       2.56       0.05       0.04       0.09        0.01     0.39   0.034
  5332349171156425           2.65       0.00       0.00       2.56       0.05       0.04       0.09        0.01     0.39   0.034
  2047249395798475           2.65       0.00       0.00       2.56       0.05       0.04       0.09        0.01     0.39   0.034
  2188043733750965           2.65       0.00       0.00       2.56       0.05       0.04       0.09        0.01     0.39   0.034
  369935498                  2.65       0.00       0.00       2.56       0.05       0.04       0.09        0.01     0.39   0.034
  454779461573195            2.65       0.00       0.00       2.56       0.05       0.04       0.09        0.01     0.39   0.034
  981222452918115            2.65       0.00       0.00       2.56       0.05       0.04       0.09        0.01     0.39   0.034
  4536519102007625           2.65       0.00       0.00       2.56       0.05       0.04       0.09        0.01     0.39   0.034
  3764507416045015           2.65       0.00       0.00       2.56       0.05       0.04       0.09        0.01     0.39   0.034
  2764171537407805           2.65       0.00       0.00       2.56       0.05       0.04       0.09        0.01     0.39   0.034
  35542754843295             2.65       0.00       0.00       2.56       0.05       0.04       0.09        0.01     0.39   0.034
  3145458112439345           2.65       0.00       0.00       2.56       0.05       0.04       0.09        0.01     0.39   0.034
  685969420                  2.65       0.00       0.00       2.56       0.05       0.04       0.09        0.01     0.39   0.034
  374629179                  2.65       0.00       0.00       2.56       0.05       0.04       0.09        0.01     0.39   0.034
  4882662409810355           2.65       0.00       0.00       2.56       0.05       0.04       0.09        0.01     0.39   0.034
  4946297467208195           2.65       0.00       0.00       2.56       0.05       0.04       0.09        0.01     0.39   0.034
  3657058617628565           2.65       0.00       0.00       2.56       0.05       0.04       0.09        0.01     0.39   0.034
  3748868537834515           2.65       0.00       0.00       2.56       0.05       0.04       0.09        0.01     0.39   0.034
  699679579653835            2.65       0.00       0.00       2.56       0.05       0.04       0.09        0.01     0.39   0.034
  2134161769372955           2.65       0.00       0.00       2.56       0.05       0.04       0.09        0.01     0.39   0.034
  1622953939623645           2.65       0.00       0.00       2.56       0.05       0.04       0.09        0.01     0.39   0.034
  3319621841124585           2.65       0.00       0.00       2.56       0.05       0.04       0.09        0.01     0.39   0.034
  2832122768449825           2.65       0.00       0.00       2.56       0.05       0.04       0.09        0.01     0.39   0.034
  369935484                  2.65       0.00       0.00       2.56       0.05       0.04       0.09        0.01     0.39   0.034
  4213269972571925           2.65       0.00       0.00       2.56       0.05       0.04       0.09        0.01     0.39   0.034
  3190857418838955           2.65       0.00       0.00       2.56       0.05       0.04       0.09        0.01     0.39   0.034
  5362771495526235           2.65       0.00       0.00       2.56       0.05       0.04       0.09        0.01     0.39   0.034
  1010939852248375           2.65       0.00       0.00       2.56       0.05       0.04       0.09        0.01     0.39   0.034
  2948644652926145           2.65       0.00       0.00       2.56       0.05       0.04       0.09        0.01     0.39   0.034
  829076604970865            2.65       0.00       0.00       2.56       0.05       0.04       0.09        0.01     0.39   0.034
  866266398095085            2.65       0.00       0.00       2.56       0.05       0.04       0.09        0.01     0.39   0.034
  2732528268007215           2.65       0.00       0.00       2.56       0.05       0.04       0.09        0.01     0.39   0.034
  3577954589067715           2.65       0.00       0.00       2.56       0.05       0.04       0.09        0.01     0.39   0.034
  212002852582935            2.65       0.00       0.00       2.56       0.05       0.04       0.09        0.01     0.39   0.034
  370585504                  2.65       0.00       0.00       2.56       0.05       0.04       0.09        0.01     0.39   0.034
  368712050                  2.65       0.00       0.00       2.56       0.05       0.04       0.09        0.01     0.39   0.034
  4781426638890075           2.65       0.00       0.00       2.56       0.05       0.04       0.09        0.01     0.39   0.034
  3817203869938315           2.65       0.00       0.00       2.56       0.05       0.04       0.09        0.01     0.39   0.034
  370585520                  2.65       0.00       0.00       2.56       0.05       0.04       0.09        0.01     0.39   0.034
  1628479919972605           2.65       0.00       0.00       2.56       0.05       0.04       0.09        0.01     0.39   0.034
  5589715707034675           2.65       0.00       0.00       2.56       0.05       0.04       0.09        0.01     0.39   0.034
  711793401545355            2.65       0.00       0.00       2.56       0.05       0.04       0.09        0.01     0.39   0.034
  4378542226292475           2.65       0.00       0.00       2.56       0.05       0.04       0.09        0.01     0.39   0.034
  4206733021640875           2.65       0.00       0.00       2.56       0.05       0.04       0.09        0.01     0.39   0.034
  966265191662405            2.65       0.00       0.00       2.56       0.05       0.04       0.09        0.01     0.39   0.034
  368712060                  2.65       0.00       0.00       2.56       0.05       0.04       0.09        0.01     0.39   0.034
  1393412085548265           2.65       0.00       0.00       2.56       0.05       0.04       0.09        0.01     0.39   0.034
  721787649                  2.65       0.00       0.00       2.56       0.05       0.04       0.09        0.01     0.39   0.034
  4237752585399175           2.65       0.00       0.00       2.56       0.05       0.04       0.09        0.01     0.39   0.034
  1421024070737565           2.65       0.00       0.00       2.56       0.05       0.04       0.09        0.01     0.39   0.034
  437954209903565            2.65       0.00       0.00       2.56       0.05       0.04       0.09        0.01     0.39   0.034
  3286451274865115           2.65       0.00       0.00       2.56       0.05       0.04       0.09        0.01     0.39   0.034
  721787652                  2.65       0.00       0.00       2.56       0.05       0.04       0.09        0.01     0.39   0.034
  3133584047869155           2.65       0.00       0.00       2.56       0.05       0.04       0.09        0.01     0.39   0.034
  370585519                  2.65       0.00       0.00       2.56       0.05       0.04       0.09        0.01     0.39   0.034
  1589012553244655           2.65       0.00       0.00       2.56       0.05       0.04       0.09        0.01     0.39   0.034
  247004020487835            2.65       0.00       0.00       2.56       0.05       0.04       0.09        0.01     0.39   0.034
  1864395206438415           2.65       0.00       0.00       2.56       0.05       0.04       0.09        0.01     0.39   0.034
  4598961597441255           2.65       0.00       0.00       2.56       0.05       0.04       0.09        0.01     0.39   0.034
  120590377656545            2.65       0.00       0.00       2.56       0.05       0.04       0.09        0.01     0.39   0.034
  368712047                  2.65       0.00       0.00       2.56       0.05       0.04       0.09        0.01     0.39   0.034
  368712046                  2.65       0.00       0.00       2.56       0.05       0.04       0.09        0.01     0.39   0.034
  1900961644915325           2.65       0.00       0.00       2.56       0.05       0.04       0.09        0.01     0.39   0.034
  370585507                  2.65       0.00       0.00       2.56       0.05       0.04       0.09        0.01     0.39   0.034
  409605043776205            2.65       0.00       0.00       2.56       0.05       0.04       0.09        0.01     0.39   0.034
  795965226282905            2.65       0.00       0.00       2.56       0.05       0.04       0.09        0.01     0.39   0.034
  368712049                  2.65       0.00       0.00       2.56       0.05       0.04       0.09        0.01     0.39   0.034
  952994247658915            2.65       0.00       0.00       2.56       0.05       0.04       0.09        0.01     0.39   0.034
  801675670687115            2.65       0.00       0.00       2.56       0.05       0.04       0.09        0.01     0.39   0.034
  4988496527700225           2.65       0.00       0.00       2.56       0.05       0.04       0.09        0.01     0.39   0.034
  370585506                  2.65       0.00       0.00       2.56       0.05       0.04       0.09        0.01     0.39   0.034
  3854055627708815           2.65       0.00       0.00       2.56       0.05       0.04       0.09        0.01     0.39   0.034
  1040825350443645           2.65       0.00       0.00       2.56       0.05       0.04       0.09        0.01     0.39   0.034
  374619484                  2.65       0.00       0.00       2.56       0.05       0.04       0.09        0.01     0.39   0.034
  374619483                  2.65       0.00       0.00       2.56       0.05       0.04       0.09        0.01     0.39   0.034
  1628880461292705           2.65       0.00       0.00       2.56       0.05       0.04       0.09        0.01     0.39   0.034
  721787650                  2.65       0.00       0.00       2.56       0.05       0.04       0.09        0.01     0.39   0.034
  374628273                  2.65       0.00       0.00       2.56       0.05       0.04       0.09        0.01     0.39   0.034
  861816577792665            2.65       0.00       0.00       2.56       0.05       0.04       0.09        0.01     0.39   0.034
  2116051648563975           2.65       0.00       0.00       2.56       0.05       0.04       0.09        0.01     0.39   0.034
  3522841107387295           2.65       0.00       0.00       2.56       0.05       0.04       0.09        0.01     0.39   0.034
  368712048                  2.65       0.00       0.00       2.56       0.05       0.04       0.09        0.01     0.39   0.034
  637952359439475            2.65       0.00       0.00       2.56       0.05       0.04       0.09        0.01     0.39   0.034
  368712055                  2.65       0.00       0.00       2.56       0.05       0.04       0.09        0.01     0.39   0.034
  4613826830225855           2.65       0.00       0.00       2.56       0.05       0.04       0.09        0.01     0.39   0.034
  2667335575648575           2.65       0.00       0.00       2.56       0.05       0.04       0.09        0.01     0.39   0.034
  5409274409886665           2.65       0.00       0.00       2.56       0.05       0.04       0.09        0.01     0.39   0.034
  364715643                  2.65       0.00       0.00       2.56       0.05       0.04       0.09        0.01     0.39   0.034
  381041283899525            2.65       0.00       0.00       2.56       0.05       0.04       0.09        0.01     0.39   0.034
  3539091678084985           2.65       0.00       0.00       2.56       0.05       0.04       0.09        0.01     0.39   0.034
  3582122251953965           2.65       0.00       0.00       2.56       0.05       0.04       0.09        0.01     0.39   0.034
  3746221363912945           2.65       0.00       0.00       2.56       0.05       0.04       0.09        0.01     0.39   0.034
  3259498311303025           2.65       0.00       0.00       2.56       0.05       0.04       0.09        0.01     0.39   0.034
  3862000756848945           2.65       0.00       0.00       2.56       0.05       0.04       0.09        0.01     0.39   0.034
  4558738806802605           2.65       0.00       0.00       2.56       0.05       0.04       0.09        0.01     0.39   0.034
  2064166679241105           2.65       0.00       0.00       2.56       0.05       0.04       0.09        0.01     0.39   0.034
  4165551708679725           2.65       0.00       0.00       2.56       0.05       0.04       0.09        0.01     0.39   0.034
  4612892721223285           2.65       0.00       0.00       2.56       0.05       0.04       0.09        0.01     0.39   0.034
  2207181747202975           2.65       0.00       0.00       2.56       0.05       0.04       0.09        0.01     0.39   0.034
  4301263148797945           2.65       0.00       0.00       2.56       0.05       0.04       0.09        0.01     0.39   0.034
  1962537840191015           2.65       0.00       0.00       2.56       0.05       0.04       0.09        0.01     0.39   0.034
  721787651                  2.65       0.00       0.00       2.56       0.05       0.04       0.09        0.01     0.39   0.034
  370585517                  2.65       0.00       0.00       2.56       0.05       0.04       0.09        0.01     0.39   0.034
  4801765664206345           2.65       0.00       0.00       2.56       0.05       0.04       0.09        0.01     0.39   0.034
  3950597387079895           2.65       0.00       0.00       2.56       0.05       0.04       0.09        0.01     0.39   0.034
  2397615896902025           2.65       0.00       0.00       2.56       0.05       0.04       0.09        0.01     0.39   0.034
  377012321                  2.65       0.00       0.00       2.56       0.05       0.04       0.09        0.01     0.39   0.034
  4847245522107915           2.65       0.00       0.00       2.56       0.05       0.04       0.09        0.01     0.39   0.034
  1132613939401485           2.65       0.00       0.00       2.56       0.05       0.04       0.09        0.01     0.39   0.034
  2399591986837325           2.65       0.00       0.00       2.56       0.05       0.04       0.09        0.01     0.39   0.034
  326029627192085            2.65       0.00       0.00       2.56       0.05       0.04       0.09        0.01     0.39   0.034
  3456045485106165           2.65       0.00       0.00       2.56       0.05       0.04       0.09        0.01     0.39   0.034
  692921538544105            2.65       0.00       0.00       2.56       0.05       0.04       0.09        0.01     0.39   0.034
  370585518                  2.65       0.00       0.00       2.56       0.05       0.04       0.09        0.01     0.39   0.034
  1677930110109955           2.65       0.00       0.00       2.56       0.05       0.04       0.09        0.01     0.39   0.034
  130207182421095            2.65       0.00       0.00       2.56       0.05       0.04       0.09        0.01     0.39   0.034
  377012318                  2.65       0.00       0.00       2.56       0.05       0.04       0.09        0.01     0.39   0.034
  1756026724703285           2.65       0.00       0.00       2.56       0.05       0.04       0.09        0.01     0.39   0.034
  3313063492023585           2.65       0.00       0.00       2.56       0.05       0.04       0.09        0.01     0.39   0.034
  5335898301453125           2.65       0.00       0.00       2.56       0.05       0.04       0.09        0.01     0.39   0.034
  368712053                  2.65       0.00       0.00       2.56       0.05       0.04       0.09        0.01     0.39   0.034
  2027369226731165           2.65       0.00       0.00       2.56       0.05       0.04       0.09        0.01     0.39   0.034
  4344755167503755           2.65       0.00       0.00       2.56       0.05       0.04       0.09        0.01     0.39   0.034
  2819143166367115           2.65       0.00       0.00       2.56       0.05       0.04       0.09        0.01     0.39   0.034
  5226770040946865           2.65       0.00       0.00       2.56       0.05       0.04       0.09        0.01     0.39   0.034
  370585515                  2.65       0.00       0.00       2.56       0.05       0.04       0.09        0.01     0.39   0.034
  4774750473818415           2.65       0.00       0.00       2.56       0.05       0.04       0.09        0.01     0.39   0.034
  1672146114614205           2.65       0.00       0.00       2.56       0.05       0.04       0.09        0.01     0.39   0.034
  685589671888935            2.65       0.00       0.00       2.56       0.05       0.04       0.09        0.01     0.39   0.034
  368712054                  2.65       0.00       0.00       2.56       0.05       0.04       0.09        0.01     0.39   0.034
  1994032613021375           2.65       0.00       0.00       2.56       0.05       0.04       0.09        0.01     0.39   0.034
  3697432820905225           2.65       0.00       0.00       2.56       0.05       0.04       0.09        0.01     0.39   0.034
  5000351116843335           2.65       0.00       0.00       2.56       0.05       0.04       0.09        0.01     0.39   0.034
  1498044573514795           2.65       0.00       0.00       2.56       0.05       0.04       0.09        0.01     0.39   0.034
  1960291464487155           2.65       0.00       0.00       2.56       0.05       0.04       0.09        0.01     0.39   0.034
  5321709489729195           2.65       0.00       0.00       2.56       0.05       0.04       0.09        0.01     0.39   0.034
  3688883305990495           2.65       0.00       0.00       2.56       0.05       0.04       0.09        0.01     0.39   0.034
  192961077389405            2.65       0.00       0.00       2.56       0.05       0.04       0.09        0.01     0.39   0.034
  4622887405380415           2.65       0.00       0.00       2.56       0.05       0.04       0.09        0.01     0.39   0.034
  3904913789227845           2.65       0.00       0.00       2.56       0.05       0.04       0.09        0.01     0.39   0.034
  2271166188378195           2.65       0.00       0.00       2.56       0.05       0.04       0.09        0.01     0.39   0.034
  370585510                  2.65       0.00       0.00       2.56       0.05       0.04       0.09        0.01     0.39   0.034
  4321670386697615           2.65       0.00       0.00       2.56       0.05       0.04       0.09        0.01     0.39   0.034
  3415495920499105           2.65       0.00       0.00       2.56       0.05       0.04       0.09        0.01     0.39   0.034
  2182615645389815           2.65       0.00       0.00       2.56       0.05       0.04       0.09        0.01     0.39   0.034
  4141514114858465           2.65       0.00       0.00       2.56       0.05       0.04       0.09        0.01     0.39   0.034
  5493748981373755           2.65       0.00       0.00       2.56       0.05       0.04       0.09        0.01     0.39   0.034
  5384878284056325           2.65       0.00       0.00       2.56       0.05       0.04       0.09        0.01     0.39   0.034
  654666748367505            2.65       0.00       0.00       2.56       0.05       0.04       0.09        0.01     0.39   0.034
  2718816973315145           2.65       0.00       0.00       2.56       0.05       0.04       0.09        0.01     0.39   0.034
  2887538907222905           2.65       0.00       0.00       2.56       0.05       0.04       0.09        0.01     0.39   0.034
  364715640                  2.65       0.00       0.00       2.56       0.05       0.04       0.09        0.01     0.39   0.034
  5136631937413785           2.65       0.00       0.00       2.56       0.05       0.04       0.09        0.01     0.39   0.034
  1203602029037935           2.65       0.00       0.00       2.56       0.05       0.04       0.09        0.01     0.39   0.034
  5428538861903415           2.65       0.00       0.00       2.56       0.05       0.04       0.09        0.01     0.39   0.034
  2624729589408825           2.65       0.00       0.00       2.56       0.05       0.04       0.09        0.01     0.39   0.034
  2738706941221645           2.65       0.00       0.00       2.56       0.05       0.04       0.09        0.01     0.39   0.034
  364715642                  2.65       0.00       0.00       2.56       0.05       0.04       0.09        0.01     0.39   0.034
  5484334827718295           2.65       0.00       0.00       2.56       0.05       0.04       0.09        0.01     0.39   0.034
  3359158261422815           2.65       0.00       0.00       2.56       0.05       0.04       0.09        0.01     0.39   0.034
  4506837684886655           2.65       0.00       0.00       2.56       0.05       0.04       0.09        0.01     0.39   0.034
  3496258043011205           2.65       0.00       0.00       2.56       0.05       0.04       0.09        0.01     0.39   0.034
  2914142446555495           2.65       0.00       0.00       2.56       0.05       0.04       0.09        0.01     0.39   0.034
  4474800673924915           2.65       0.00       0.00       2.56       0.05       0.04       0.09        0.01     0.39   0.034
  2528579679203975           2.65       0.00       0.00       2.56       0.05       0.04       0.09        0.01     0.39   0.034
  778186189974805            2.65       0.00       0.00       2.56       0.05       0.04       0.09        0.01     0.39   0.034
  4185883049741255           2.65       0.00       0.00       2.56       0.05       0.04       0.09        0.01     0.39   0.034
  4772358698272745           2.65       0.00       0.00       2.56       0.05       0.04       0.09        0.01     0.39   0.034
  364715639                  2.65       0.00       0.00       2.56       0.05       0.04       0.09        0.01     0.39   0.034
  837770538640395            2.65       0.00       0.00       2.56       0.05       0.04       0.09        0.01     0.39   0.034
  328260311067365            2.65       0.00       0.00       2.56       0.05       0.04       0.09        0.01     0.39   0.034
  2425001276615745           2.65       0.00       0.00       2.56       0.05       0.04       0.09        0.01     0.39   0.034
  518243484808615            2.65       0.00       0.00       2.56       0.05       0.04       0.09        0.01     0.39   0.034
  2214186556288195           2.65       0.00       0.00       2.56       0.05       0.04       0.09        0.01     0.39   0.034
  3577419528156455           2.65       0.00       0.00       2.56       0.05       0.04       0.09        0.01     0.39   0.034
  1747694791169375           2.65       0.00       0.00       2.56       0.05       0.04       0.09        0.01     0.39   0.034
  555618247560895            2.65       0.00       0.00       2.56       0.05       0.04       0.09        0.01     0.39   0.034
  4815389937819165           2.65       0.00       0.00       2.56       0.05       0.04       0.09        0.01     0.39   0.034
  3293085372829345           2.65       0.00       0.00       2.56       0.05       0.04       0.09        0.01     0.39   0.034
  762759713177245            2.65       0.00       0.00       2.56       0.05       0.04       0.09        0.01     0.39   0.034
  1715316498834945           2.65       0.00       0.00       2.56       0.05       0.04       0.09        0.01     0.39   0.034
  1433572112757635           2.65       0.00       0.00       2.56       0.05       0.04       0.09        0.01     0.39   0.034
  364715641                  2.65       0.00       0.00       2.56       0.05       0.04       0.09        0.01     0.39   0.034
  3116706530869115           2.65       0.00       0.00       2.56       0.05       0.04       0.09        0.01     0.39   0.034
  3286690351854695           2.65       0.00       0.00       2.56       0.05       0.04       0.09        0.01     0.39   0.034
  4116707127091215           2.65       0.00       0.00       2.56       0.05       0.04       0.09        0.01     0.39   0.034
  1906566213306235           2.65       0.00       0.00       2.56       0.05       0.04       0.09        0.01     0.39   0.034
  1332148556872095           2.65       0.00       0.00       2.56       0.05       0.04       0.09        0.01     0.39   0.034
  4380935692937895           2.65       0.00       0.00       2.56       0.05       0.04       0.09        0.01     0.39   0.034
  2066950009873115           2.65       0.00       0.00       2.56       0.05       0.04       0.09        0.01     0.39   0.034
  4510336933906945           2.65       0.00       0.00       2.56       0.05       0.04       0.09        0.01     0.39   0.034
  473325849577025            2.65       0.00       0.00       2.56       0.05       0.04       0.09        0.01     0.39   0.034
  2                          2.65       0.00       0.00       1.21       1.32       0.11       1.43        0.39     4.52   0.539
  3                          2.65       0.00       0.00       1.16       1.32       0.17       1.49        0.20     2.45   0.561
  4                          2.65       0.00       0.00       1.16       1.32       0.17       1.49        0.20     2.45   0.561
  5                          2.65       0.00       0.00       1.24       1.31       0.09       1.40        0.57     6.56   0.528
  6                          2.65       0.00       0.00       2.27       0.26       0.12       0.38        0.12     1.50   0.143
  7                          2.65       0.00       0.00       2.14       0.26       0.25       0.51        0.06     0.79   0.194
  8                          2.65       0.00       0.00       2.25       0.26       0.13       0.40        0.11     1.33   0.150
  
  
  ****************************
  Subcatchment Washoff Summary
  ****************************
  
  ------------------------------------------------
                                 TSS          Lead
  Subcatchment                   lbs           lbs
  ------------------------------------------------
  370995439                    0.000         0.000
  370997097                    0.000         0.000
  370995435                    0.000         0.000
  370995447                    0.000         0.000
  685933309                    0.000         0.000
  374494683                    0.000         0.000
  685879161                    0.000         0.000
  685933307                    0.000         0.000
  375011373                    0.000         0.000
  685913793                    0.000         0.000
  685883514                    0.000         0.000
  685877782                    0.000         0.000
  685874598                    0.000         0.000
  685875663                    0.000         0.000
  374494685                    0.000         0.000
  685909942                    0.000         0.000
  685913796                    0.000         0.000
  685877638                    0.000         0.000
  685472658                    0.000         0.000
  685882661                    0.000         0.000
  370997098                    0.000         0.000
  1752667827121555             0.000         0.000
  685874048                    0.000         0.000
  685885820                    0.000         0.000
  374494686                    0.000         0.000
  685878130                    0.000         0.000
  685885819                    0.000         0.000
  685926441                    0.000         0.000
  685877956                    0.000         0.000
  1213973655851495             0.000         0.000
  685882835                    0.000         0.000
  685874796                    0.000         0.000
  134955126411405              0.000         0.000
  4091570214933675             0.000         0.000
  3167579606707235             0.000         0.000
  398538993186535              0.000         0.000
  5157460039455535             0.000         0.000
  374629176                    0.000         0.000
  4398983480386405             0.000         0.000
  4053187851093285             0.000         0.000
  1448521660236735             0.000         0.000
  1220338464205595             0.000         0.000
  370276442                    0.000         0.000
  3881420723527275             0.000         0.000
  374629175                    0.000         0.000
  375109508                    0.000         0.000
  4605277256059175             0.000         0.000
  370934347905915              0.000         0.000
  4394804005829765             0.000         0.000
  685969424                    0.000         0.000
  5531202424173705             0.000         0.000
  2437958647308555             0.000         0.000
  1351552798623385             0.000         0.000
  4235476910067515             0.000         0.000
  839088263721825              0.000         0.000
  4535425796051525             0.000         0.000
  2483776702980555             0.000         0.000
  1886641471372695             0.000         0.000
  1544216086485295             0.000         0.000
  370585511                    0.000         0.000
  4265632450309875             0.000         0.000
  4917957991456495             0.000         0.000
  374628274                    0.000         0.000
  374628275                    0.000         0.000
  1145568240444705             0.000         0.000
  174261341122835              0.000         0.000
  4088208754605765             0.000         0.000
  375109506                    0.000         0.000
  3451180154337545             0.000         0.000
  2714497763837645             0.000         0.000
  2542274248462105             0.000         0.000
  369935480                    0.000         0.000
  370276424                    0.000         0.000
  374628276                    0.000         0.000
  2297284081073355             0.000         0.000
  2914084063253065             0.000         0.000
  369935496                    0.000         0.000
  713405900011335              0.000         0.000
  2516190266764155             0.000         0.000
  5602778212592045             0.000         0.000
  750363496675355              0.000         0.000
  2979121345560105             0.000         0.000
  2995047727490925             0.000         0.000
  2243817674945495             0.000         0.000
  2604609012658865             0.000         0.000
  1617676937829845             0.000         0.000
  5478545555890815             0.000         0.000
  5220362509116755             0.000         0.000
  1859206529744015             0.000         0.000
  375109507                    0.000         0.000
  2151138269522915             0.000         0.000
  4650661269543295             0.000         0.000
  388181828                    0.000         0.000
  4186704481955285             0.000         0.000
  3798022896651235             0.000         0.000
  1804756951380835             0.000         0.000
  1098608080110745             0.000         0.000
  3830783165009325             0.000         0.000
  5142534242675515             0.000         0.000
  1062021281050945             0.000         0.000
  369935488                    0.000         0.000
  388181158                    0.000         0.000
  369935483                    0.000         0.000
  1692392045315935             0.000         0.000
  5568726541859455             0.000         0.000
  685969507                    0.000         0.000
  3271774309926695             0.000         0.000
  369935493                    0.000         0.000
  369935487                    0.000         0.000
  369935494                    0.000         0.000
  2980645255497015             0.000         0.000
  15190031824745               0.000         0.000
  2797712357301035             0.000         0.000
  685969423                    0.000         0.000
  2893936086714105             0.000         0.000
  4966813987486135             0.000         0.000
  1111007246540285             0.000         0.000
  3086794160747535             0.000         0.000
  374618352                    0.000         0.000
  4366750502879205             0.000         0.000
  3192359514743505             0.000         0.000
  2856417823674605             0.000         0.000
  5392525598865245             0.000         0.000
  2642134275452815             0.000         0.000
  4378984076889145             0.000         0.000
  5151492757614795             0.000         0.000
  369935481                    0.000         0.000
  4847216338966515             0.000         0.000
  2447307614953445             0.000         0.000
  2032739246028575             0.000         0.000
  2848925417463575             0.000         0.000
  369935492                    0.000         0.000
  1111139731076335             0.000         0.000
  5475326729023655             0.000         0.000
  4417402027643485             0.000         0.000
  3631890676860415             0.000         0.000
  1259843287409135             0.000         0.000
  4531187286450895             0.000         0.000
  2503183035170825             0.000         0.000
  685969422                    0.000         0.000
  2178692651798225             0.000         0.000
  5228144807642285             0.000         0.000
  3341501580820655             0.000         0.000
  369935491                    0.000         0.000
  4055665503038855             0.000         0.000
  4173819424562755             0.000         0.000
  3073843947496475             0.000         0.000
  3343019278756995             0.000         0.000
  5147588464920875             0.000         0.000
  5067782000423435             0.000         0.000
  2763899899408935             0.000         0.000
  5586016532679685             0.000         0.000
  685969421                    0.000         0.000
  4826380750437625             0.000         0.000
  3990030549790375             0.000         0.000
  2352187347101435             0.000         0.000
  1484197558799525             0.000         0.000
  4762499884831015             0.000         0.000
  30491990645265               0.000         0.000
  2955795723863475             0.000         0.000
  3267633902079745             0.000         0.000
  2463989059191605             0.000         0.000
  685969506                    0.000         0.000
  5211189152060715             0.000         0.000
  2336540103029365             0.000         0.000
  5146673707210455             0.000         0.000
  4168203065867455             0.000         0.000
  4608323223395945             0.000         0.000
  4896687439420135             0.000         0.000
  2034305886544725             0.000         0.000
  1576398127082235             0.000         0.000
  4426753552692035             0.000         0.000
  5194447969232425             0.000         0.000
  5332349171156425             0.000         0.000
  2047249395798475             0.000         0.000
  2188043733750965             0.000         0.000
  369935498                    0.000         0.000
  454779461573195              0.000         0.000
  981222452918115              0.000         0.000
  4536519102007625             0.000         0.000
  3764507416045015             0.000         0.000
  2764171537407805             0.000         0.000
  35542754843295               0.000         0.000
  3145458112439345             0.000         0.000
  685969420                    0.000         0.000
  374629179                    0.000         0.000
  4882662409810355             0.000         0.000
  4946297467208195             0.000         0.000
  3657058617628565             0.000         0.000
  3748868537834515             0.000         0.000
  699679579653835              0.000         0.000
  2134161769372955             0.000         0.000
  1622953939623645             0.000         0.000
  3319621841124585             0.000         0.000
  2832122768449825             0.000         0.000
  369935484                    0.000         0.000
  4213269972571925             0.000         0.000
  3190857418838955             0.000         0.000
  5362771495526235             0.000         0.000
  1010939852248375             0.000         0.000
  2948644652926145             0.000         0.000
  829076604970865              0.000         0.000
  866266398095085              0.000         0.000
  2732528268007215             0.000         0.000
  3577954589067715             0.000         0.000
  212002852582935              0.000         0.000
  370585504                    0.000         0.000
  368712050                    0.000         0.000
  4781426638890075             0.000         0.000
  3817203869938315             0.000         0.000
  370585520                    0.000         0.000
  1628479919972605             0.000         0.000
  5589715707034675             0.000         0.000
  711793401545355              0.000         0.000
  4378542226292475             0.000         0.000
  4206733021640875             0.000         0.000
  966265191662405              0.000         0.000
  368712060                    0.000         0.000
  1393412085548265             0.000         0.000
  721787649                    0.000         0.000
  4237752585399175             0.000         0.000
  1421024070737565             0.000         0.000
  437954209903565              0.000         0.000
  3286451274865115             0.000         0.000
  721787652                    0.000         0.000
  3133584047869155             0.000         0.000
  370585519                    0.000         0.000
  1589012553244655             0.000         0.000
  247004020487835              0.000         0.000
  1864395206438415             0.000         0.000
  4598961597441255             0.000         0.000
  120590377656545              0.000         0.000
  368712047                    0.000         0.000
  368712046                    0.000         0.000
  1900961644915325             0.000         0.000
  370585507                    0.000         0.000
  409605043776205              0.000         0.000
  795965226282905              0.000         0.000
  368712049                    0.000         0.000
  952994247658915              0.000         0.000
  801675670687115              0.000         0.000
  4988496527700225             0.000         0.000
  370585506                    0.000         0.000
  3854055627708815             0.000         0.000
  1040825350443645             0.000         0.000
  374619484                    0.000         0.000
  374619483                    0.000         0.000
  1628880461292705             0.000         0.000
  721787650                    0.000         0.000
  374628273                    0.000         0.000
  861816577792665              0.000         0.000
  2116051648563975             0.000         0.000
  3522841107387295             0.000         0.000
  368712048                    0.000         0.000
  637952359439475              0.000         0.000
  368712055                    0.000         0.000
  4613826830225855             0.000         0.000
  2667335575648575             0.000         0.000
  5409274409886665             0.000         0.000
  364715643                    0.000         0.000
  381041283899525              0.000         0.000
  3539091678084985             0.000         0.000
  3582122251953965             0.000         0.000
  3746221363912945             0.000         0.000
  3259498311303025             0.000         0.000
  3862000756848945             0.000         0.000
  4558738806802605             0.000         0.000
  2064166679241105             0.000         0.000
  4165551708679725             0.000         0.000
  4612892721223285             0.000         0.000
  2207181747202975             0.000         0.000
  4301263148797945             0.000         0.000
  1962537840191015             0.000         0.000
  721787651                    0.000         0.000
  370585517                    0.000         0.000
  4801765664206345             0.000         0.000
  3950597387079895             0.000         0.000
  2397615896902025             0.000         0.000
  377012321                    0.000         0.000
  4847245522107915             0.000         0.000
  1132613939401485             0.000         0.000
  2399591986837325             0.000         0.000
  326029627192085              0.000         0.000
  3456045485106165             0.000         0.000
  692921538544105              0.000         0.000
  370585518                    0.000         0.000
  1677930110109955             0.000         0.000
  130207182421095              0.000         0.000
  377012318                    0.000         0.000
  1756026724703285             0.000         0.000
  3313063492023585             0.000         0.000
  5335898301453125             0.000         0.000
  368712053                    0.000         0.000
  2027369226731165             0.000         0.000
  4344755167503755             0.000         0.000
  2819143166367115             0.000         0.000
  5226770040946865             0.000         0.000
  370585515                    0.000         0.000
  4774750473818415             0.000         0.000
  1672146114614205             0.000         0.000
  685589671888935              0.000         0.000
  368712054                    0.000         0.000
  1994032613021375             0.000         0.000
  3697432820905225             0.000         0.000
  5000351116843335             0.000         0.000
  1498044573514795             0.000         0.000
  1960291464487155             0.000         0.000
  5321709489729195             0.000         0.000
  3688883305990495             0.000         0.000
  192961077389405              0.000         0.000
  4622887405380415             0.000         0.000
  3904913789227845             0.000         0.000
  2271166188378195             0.000         0.000
  370585510                    0.000         0.000
  4321670386697615             0.000         0.000
  3415495920499105             0.000         0.000
  2182615645389815             0.000         0.000
  4141514114858465             0.000         0.000
  5493748981373755             0.000         0.000
  5384878284056325             0.000         0.000
  654666748367505              0.000         0.000
  2718816973315145             0.000         0.000
  2887538907222905             0.000         0.000
  364715640                    0.000         0.000
  5136631937413785             0.000         0.000
  1203602029037935             0.000         0.000
  5428538861903415             0.000         0.000
  2624729589408825             0.000         0.000
  2738706941221645             0.000         0.000
  364715642                    0.000         0.000
  5484334827718295             0.000         0.000
  3359158261422815             0.000         0.000
  4506837684886655             0.000         0.000
  3496258043011205             0.000         0.000
  2914142446555495             0.000         0.000
  4474800673924915             0.000         0.000
  2528579679203975             0.000         0.000
  778186189974805              0.000         0.000
  4185883049741255             0.000         0.000
  4772358698272745             0.000         0.000
  364715639                    0.000         0.000
  837770538640395              0.000         0.000
  328260311067365              0.000         0.000
  2425001276615745             0.000         0.000
  518243484808615              0.000         0.000
  2214186556288195             0.000         0.000
  3577419528156455             0.000         0.000
  1747694791169375             0.000         0.000
  555618247560895              0.000         0.000
  4815389937819165             0.000         0.000
  3293085372829345             0.000         0.000
  762759713177245              0.000         0.000
  1715316498834945             0.000         0.000
  1433572112757635             0.000         0.000
  364715641                    0.000         0.000
  3116706530869115             0.000         0.000
  3286690351854695             0.000         0.000
  4116707127091215             0.000         0.000
  1906566213306235             0.000         0.000
  1332148556872095             0.000         0.000
  4380935692937895             0.000         0.000
  2066950009873115             0.000         0.000
  4510336933906945             0.000         0.000
  473325849577025              0.000         0.000
  2                           90.586         0.018
  3                           25.144         0.005
  4                           46.097         0.009
  5                           71.172         0.014
  6                           65.843         0.013
  7                           26.025         0.005
  8                           56.427         0.011
  ------------------------------------------------
  System                     381.293         0.076
  
  
  ******************
  Node Depth Summary
  ******************
  
  ---------------------------------------------------------------------------------
                                 Average  Maximum  Maximum  Time of Max    Reported
                                   Depth    Depth      HGL   Occurrence   Max Depth
  Node                 Type         Feet     Feet     Feet  days hr:min        Feet
  ---------------------------------------------------------------------------------
  Inflow_Junction      JUNCTION     0.34     3.00  1003.00     0  02:11        3.00
  10                   JUNCTION     0.56     3.00   998.00     0  01:11        3.00
  13                   JUNCTION     0.06     0.41   995.41     0  04:01        0.41
  14                   JUNCTION     0.06     0.46   990.46     0  04:01        0.46
  15                   JUNCTION     0.15     1.15   988.15     0  04:01        1.15
  16                   JUNCTION     0.19     1.15   986.15     0  04:01        1.14
  17                   JUNCTION     0.19     1.14   981.14     0  04:02        1.14
  19                   JUNCTION     0.03     0.22  1010.22     0  04:01        0.22
  20                   JUNCTION     0.03     0.22  1005.22     0  04:02        0.22
  21                   JUNCTION     1.21     2.00   992.00     0  01:12        2.00
  22                   JUNCTION     1.13     1.58   988.58     0  04:02        1.58
  23                   JUNCTION     0.05     0.35   990.35     0  04:01        0.35
  24                   JUNCTION     0.19     1.14   985.14     0  04:01        1.14
  18                   OUTFALL      0.18     1.07   976.07     0  04:02        1.06
  
  
  *******************
  Node Inflow Summary
  *******************
  
  -------------------------------------------------------------------------------------------------
                                  Maximum  Maximum                  Lateral       Total        Flow
                                  Lateral    Total  Time of Max      Inflow      Inflow     Balance
                                   Inflow   Inflow   Occurrence      Volume      Volume       Error
  Node                 Type           CFS      CFS  days hr:min    10^6 gal    10^6 gal     Percent
  -------------------------------------------------------------------------------------------------
  Inflow_Junction      JUNCTION    140.42   140.42     0  04:01        4.41        4.41      -0.000
  10                   JUNCTION      4.52    19.79     0  04:01       0.388        2.57      -0.000
  13                   JUNCTION      2.45     2.45     0  04:01       0.202       0.202       0.000
  14                   JUNCTION      0.00     2.44     0  04:01           0       0.202       0.000
  15                   JUNCTION      6.56     9.00     0  04:01        0.57       0.771       0.000
  16                   JUNCTION      0.00    16.83     0  04:01           0        1.93       0.000
  17                   JUNCTION      0.00    18.30     0  04:02           0        2.06       0.000
  19                   JUNCTION      0.79     0.79     0  04:01      0.0558      0.0558       0.000
  20                   JUNCTION      0.00     0.78     0  04:02           0      0.0558       0.000
  21                   JUNCTION      0.00     5.42     0  04:02           0       0.963       0.000
  22                   JUNCTION      2.45     7.86     0  04:01       0.202        1.16       0.000
  23                   JUNCTION      1.50     1.50     0  04:01       0.124       0.124       0.000
  24                   JUNCTION      0.00    18.31     0  04:01           0        2.06       0.000
  18                   OUTFALL       1.33    19.60     0  04:02       0.108        2.16       0.000
  
  
  *********************
  Node Flooding Summary
  *********************
  
  Flooding refers to all water that overflows a node, whether it ponds or not.
  --------------------------------------------------------------------------
                                                             Total   Maximum
                                 Maximum   Time of Max       Flood    Ponded
                        Hours       Rate    Occurrence      Volume    Volume
  Node                 Flooded       CFS   days hr:min    10^6 gal  1000 ft
  --------------------------------------------------------------------------
  Inflow_Junction         2.87    125.15      0  04:01       2.237     0.000
  10                      6.35     15.16      0  04:01       1.661     0.000
  
  
  ***********************
  Outfall Loading Summary
  ***********************
  
  ---------------------------------------------------------------------------------------
                         Flow       Avg       Max       Total         Total         Total
                         Freq      Flow      Flow      Volume           TSS          Lead
  Outfall Node           Pcnt       CFS       CFS    10^6 gal           lbs           lbs
  ---------------------------------------------------------------------------------------
  18                    69.63      3.21     19.60       2.164       323.923         0.065
  ---------------------------------------------------------------------------------------
  System                69.63      3.21     19.60       2.164       323.923         0.065
  
  
  ********************
  Link Flow Summary
  ********************
  
  -----------------------------------------------------------------------------
                                 Maximum  Time of Max   Maximum    Max/    Max/
                                  |Flow|   Occurrence   |Veloc|    Full    Full
  Link                 Type          CFS  days hr:min    ft/sec    Flow   Depth
  -----------------------------------------------------------------------------
  1                    CONDUIT     16.00     0  05:02     10.25    1.05    1.00
  4                    CONDUIT      0.78     0  04:02      6.11    0.11    0.22
  5                    CONDUIT      0.78     0  04:02      8.99    0.06    0.17
  6                    CONDUIT      4.97     0  05:17      7.23    1.07    1.00
  7                    CONDUIT      5.41     0  04:02      7.13    0.18    0.29
  8                    CONDUIT      7.85     0  04:01      6.84    0.33    0.39
  10                   CONDUIT     18.30     0  04:02     10.75    0.56    0.53
  11                   CONDUIT      2.44     0  04:01      6.36    0.16    0.27
  12                   CONDUIT      2.44     0  04:02      5.30    0.21    0.31
  13                   CONDUIT      8.98     0  04:01      6.24    0.93    0.76
  14                   CONDUIT      1.49     0  04:02      6.12    0.26    0.35
  15                   CONDUIT     16.82     0  04:01      9.67    0.57    0.54
  16                   CONDUIT     18.30     0  04:02      9.88    0.62    0.57
  
  
  *************************
  Conduit Surcharge Summary
  *************************
  
  ----------------------------------------------------------------------------
                                                           Hours        Hours 
                         --------- Hours Full --------   Above Full   Capacity
  Conduit                Both Ends  Upstream  Dnstream   Normal Flow   Limited
  ----------------------------------------------------------------------------
  1                           2.87      2.87      2.87      2.88         2.87
  6                           6.35      6.35      6.35      6.38         6.35
  
  
  ***************************
  Link Pollutant Load Summary
  ***************************
  
  ------------------------------------------------
                                 TSS          Lead
  Link                           lbs           lbs
  ------------------------------------------------
  1                            0.000         0.000
  4                           25.988         0.005
  5                           25.974         0.005
  6                           34.360         0.007
  7                           60.066         0.012
  8                          105.944         0.021
  10                         267.497         0.053
  11                          25.126         0.005
  12                          25.110         0.005
  13                          96.255         0.019
  14                          65.743         0.013
  15                         202.064         0.040
  16                         267.590         0.054
  

  Analysis begun on:  Sun Apr 30 19:48:07 2023
  Analysis ended on:  Sun Apr 30 19:48:07 2023
  Total elapsed time: < 1 sec